# created with PyMOL 2.3.1
@<TRIPOS>MOLECULE
X_
38 40 1                 
SMALL
USER_CHARGES
@<TRIPOS>ATOM
1	  P1	3.131	2.905	-2.671	P.3	1	X001	0.000	
2	  P2	3.432	5.815	-2.515	P.3	1	X001	0.000	
3	  C1	-2.766	0.900	3.171	C.3	1	X001	0.000	
4	  N1	-3.394	-1.846	1.337	N.pl3	1	X001	0.000	
5	  O1	-3.751	-0.121	2.988	 O	1	X001	0.000	
6	  S1	-0.583	1.703	1.566	S.2	1	X001	0.000	
7	  C2	-2.377	0.938	4.719	C.2	1	X001	0.000	
8	  N2	-2.827	-4.006	0.718	N.2	1	X001	0.000	
9	  O2	-1.784	-0.096	5.162	O.co2	1	X001	0.000	
10	  C3	-2.315	-6.301	-0.038	C.3	1	X001	0.000	
11	  N3	-1.083	-5.148	1.772	N.2	1	X001	0.000	
12	  O3	-2.597	2.044	5.305	O.co2	1	X001	0.000	
13	  C4	1.294	-1.839	1.943	C.3	1	X001	0.000	
14	  N4	-0.816	-0.630	2.637	N.2	1	X001	0.000	
15	  O4	4.624	2.794	-2.827	 O	1	X001	0.000	
16	  C5	-1.298	-1.785	3.390	C.3	1	X001	0.000	
17	  O5	2.571	6.699	-1.651	 O	1	X001	0.000	
18	  C6	-0.842	-4.108	2.570	C.2	1	X001	0.000	
19	  O6	2.283	2.149	-3.663	O.co2	1	X001	0.000	
20	  C7	-1.601	-2.953	2.458	C.2	1	X001	0.000	
21	  O7	3.502	6.289	-3.942	 O	1	X001	0.000	
22	  C8	-2.611	-2.929	1.504	C.2	1	X001	0.000	
23	  O8	2.593	4.432	-2.577	O.3	1	X001	0.000	
24	  C9	-2.068	-5.109	0.851	C.2	1	X001	0.000	
25	  O9	4.771	5.524	-1.887	O.2	1	X001	0.000	
26	 C10	-1.448	0.557	2.524	C.2	1	X001	0.000	
27	 O10	2.793	2.405	-1.181	O.3	1	X001	0.000	
28	 C11	0.381	-0.639	1.977	C.2	1	X001	0.000	
29	 O11	-4.841	3.838	3.571	O.co2	1	X001	0.000	
30	 C12	0.674	0.553	1.301	C.2	1	X001	0.000	
31	 O12	-2.731	3.865	4.326	O.co2	1	X001	0.000	
32	 C13	1.864	0.983	0.467	C.3	1	X001	0.000	
33	 C14	1.552	1.801	-0.789	C.3	1	X001	0.000	
34	 C15	-3.330	2.223	2.621	C.3	1	X001	0.000	
35	 C16	-3.696	3.400	3.513	C.2	1	X001	0.000	
36	 MG1	6.256	4.269	-3.036	Mg	1	X001	0.000	
37	  H1	-2.650	2.619	1.850	 H	1	X001	0.000	
38	  H2	-4.264	2.023	2.071	 H	1	X001	0.000	
@<TRIPOS>BOND
1 1 15 1
2 1 19 2
3 1 23 1
4 1 27 1
5 2 17 1
6 2 21 1
7 2 23 1
8 2 25 2
9 2 36 1
10 3 5 1
11 3 7 1
12 3 26 1
13 3 34 1
14 4 22 1
15 6 26 ar
16 6 30 ar
17 7 9 ar
18 7 12 ar
19 8 22 ar
20 8 24 ar
21 10 24 1
22 11 18 ar
23 11 24 ar
24 13 28 1
25 14 16 1
26 14 26 ar
27 14 28 ar
28 16 20 1
29 18 20 ar
30 20 22 ar
31 27 33 1
32 28 30 ar
33 29 35 ar
34 30 32 1
35 31 35 ar
36 32 33 1
37 34 35 1
38 34 37 1
39 34 38 1
40 15 36 1
@<TRIPOS>SUBSTRUCTURE
1	X001	1	GROUP	1 X	X00
